
New Transformer.xfm1 windings=2 XHL=2 XHT=1 buses=[633, 634] conns=[wye, wye] 
~ kVs=[2.40, 0.277] kVAs=[166.6667, 166.6667] taps=[1, 1] 
~ wdg=1 %R=0.55  RdcOhms=[0.1618074] 
~ wdg=2 %R=0.55 RdcOhms=[0.00215424] XLT=1 phases=1 
~ normhkVA=183.333333333333 emerghkVA=250
